25

C      1.000000    1.000000    0.000000
H      0.682000    0.088000    2.568000
H      0.290000    1.733000    3.121000
C      2.718000    1.412000    1.714000
C      3.803000    1.904000    0.743000
H      2.896000    0.347000    1.915000
H      2.866000    1.926000    2.673000
O      5.073000    1.806000    1.396000
H      3.626000    2.949000    0.464000
H      3.808000    1.284000   -0.161000
C      6.140000    2.065000    0.504000
O      7.353000    2.011000    1.227000
H      6.042000    3.054000    0.045000
H      6.174000    1.295000   -0.272000
H      7.293000    2.738000    1.866000
C     -0.522000    1.000000    0.000000
C     -0.922000    1.000000    1.470000
H     -0.925000    0.131000   -0.531000
H     -0.912000    1.902000   -0.487000
C      0.387000    1.093000    2.239000
H     -1.471000    0.090000    1.735000
H     -1.567000    1.859000    1.684000
N      1.335000    1.641000    1.272000
H      1.389000    1.557000   -0.858000
H      1.372000   -0.031000   -0.047000

