26
Coordinates from ORCA-job /Users/cxs454/Desktop/DecomPoly/S-S_Curve/PE_5.5
  C   -9.54005313500917      2.15300103565072      1.07625768728466
  C   -7.82576395761550      1.95811281810210      0.68024192750625
  H   -10.02919820079103      2.78156775507898      0.33623265571201
  H   -9.51296250093993      2.63978810406591      2.04711833670386
  H   -10.02551467581791      1.18218376234260      1.13836891258090
  H   -7.44649082878658      2.97823401985789      0.76994383137665
  C   -7.04374361388759      1.29765972642037     -0.64536381911627
  H   -7.44399870553875      1.41748048579192      1.54891220143007
  H   -7.38326588677909      1.83359562754358     -1.53407742944304
  H   -7.38334197453706      0.26554809917138     -0.75362320240172
  C   -5.35869019191888      1.26716979965464     -0.70517814289448
  H   -5.02420162348648      2.30069894442407     -0.58962456804977
  C   -4.50862412239981      0.62264130081591     -2.00458621174096
  H   -5.02513903702245      0.73251418971166      0.18715806509053
  H   -4.84211602328446      1.15733781515078     -2.89692038929259
  H   -4.84319480624485     -0.41085778504199     -2.12017220697801
  C   -2.82357373728093      0.59197377239865     -2.06437817679779
  H   -2.48385543449881      1.62405922450156     -1.95624417438380
  C   -2.04164684111150     -0.06876392070237     -3.38989883269421
  H   -2.48412422872672      0.05610170929889     -1.17559913882339
  H   -2.42326917138751      0.47186271339514     -4.25863572137299
  H   -2.42113671754502     -1.08881196946971     -3.47951371867492
  C   -0.32739279517647     -0.26408836258693     -3.78585320005539
  H   0.15829338099533      0.70661124084670     -3.84804687005088
  H   -0.35457082008802     -0.75096545163130     -4.75666641059781
  H   0.16158564888953     -0.89269465479122     -3.04575140431689
