25
Coordinates from ORCA-job /Users/cxs454/Desktop/DecomPoly/S-S_Curve/PDMS_4.5
  Si  -6.84850954168978      0.70934248203733     -0.10880396657340
  O   -5.09797066081736      0.35159155901588     -0.25254256401647
  O   -8.36514206334808     -0.06628877727817     -0.64161468323244
  C   -6.89989540958247      2.37263093643468     -0.94743238748577
  C   -7.09424638283727      0.62530158879634      1.72728834609097
  H   -6.64672735117983      2.28124095002729     -2.00690691118715
  H   -6.16259053132803      3.03979096953814     -0.49468033944121
  H   -7.88980411577587      2.82489488362805     -0.87183902031801
  H   -6.78741810389121     -0.35195335004358      2.10571129560631
  H   -8.13829020070883      0.78478826995643      1.99716083351235
  H   -6.47342088259999      1.37898407459101      2.21718412752602
  H   -8.47641733920898     -0.13524565209958     -1.59673266054449
  Si  -3.50574175415946      0.89009485839502      0.13574176412982
  C   13.31769378083330      2.78801586411737      1.99569875650571
  C   -2.16443528446502      1.27040125948509     -1.23024875043494
  C   -2.29814151207352     -0.12408854934011      1.28494490929723
  H   -2.60302068541849     -0.14148063347274      2.33169528988712
  H   -1.24128360346583      0.28342999454470      1.22509654106954
  H   -2.26273780848998     -1.16662591139467      0.94290799428355
  H   13.99832973709404      2.51597778890204      1.20584045014662
  H   12.15765344388618      2.61708035347108      1.84394161605777
  H   13.66806419273883      3.24483075876489      2.90661838624520
  H   -2.40193701914919      2.12415784365312     -1.86529680656190
  H   -2.07599776854996      0.39459710712244     -1.88714304280631
  H   -1.14248313581262      1.43520133114752     -0.76626917775621
