26
Coordinates from ORCA-job /Users/cxs454/Desktop/DecomPoly/S-S_Curve/PE_3
  C   -9.11519109860811      2.03059142555289      0.82831417932167
  C   -7.52938818214021      1.91880191439182      0.60302051169234
  H   -9.58415889196447      2.62792590367415      0.04485920336261
  H   -9.28481626445072      2.51351266531943      1.78989696742718
  H   -9.58273651672496      1.04477615963143      0.84039262116509
  H   -7.13092683359075      2.93488076605297      0.68968616617878
  C   -6.88252426663220      1.27481623406738     -0.69036352046629
  H   -7.13047821571020      1.37591597259126      1.46612462262592
  H   -7.24072605219270      1.81382049459614     -1.57357592246569
  H   -7.24147932322992      0.24569105141931     -0.79458276806192
  C   -5.29289032903445      1.25798582718476     -0.72174488836299
  H   -4.94399876842525      2.28961634157642     -0.60627292983518
  C   -4.57449276368766      0.63127013770520     -1.98787603510388
  H   -4.94517871262456      0.72252502345449      0.16808842898319
  H   -4.92222625595238      1.16672183359236     -2.87770607383599
  H   -4.92336262599126     -0.40036850314473     -2.10334246830651
  C   -2.98485893508802      0.61449031987861     -2.01928312159288
  H   -2.62594161418604      1.64362556564090     -1.91503547725073
  C   -2.33799606125660     -0.02941279466293     -3.31270876997627
  H   -2.62661880927523      0.07546905789741     -1.13609638672701
  H   -2.73697534994358      0.51347253590188     -4.17578115522187
  H   -2.73638872336205     -1.04551709020461     -3.39939263991556
  C   -0.75219329501112     -0.14107502705543     -3.53806712696067
  H   -0.28472307078652      0.84477606211662     -3.55013313344562
  H   -0.58256878481288     -0.62395350334102     -4.49967150650886
  H   -0.28315025530804     -0.73839837383675     -2.75464877671887
