26
Coordinates from ORCA-job /Users/cxs454/Desktop/DecomPoly/S-S_Curve/PE_5
  C   -9.41760398906574      2.11882381432756      1.00641155119051
  C   -7.74808350824920      1.94559358922035      0.65596617190644
  H   -9.90582313019237      2.74051214763168      0.25824964623833
  H   -9.44210245855754      2.60560598360625      1.97830325834517
  H   -9.90332959474768      1.14613906397172      1.05717454233903
  H   -7.35932835340337      2.96327360408282      0.74441938771495
  C   -7.00145777183584      1.28972546738458     -0.66085296178746
  H   -7.35791838021577      1.40425757136475      1.52167583607484
  H   -7.34478040406836      1.82620562157017     -1.54885056182964
  H   -7.34563309343478      0.25823805993386     -0.76941792438105
  C   -5.34296759678593      1.26378285432119     -0.71016020528288
  H   -5.00566284518104      2.29701427058997     -0.59238736666558
  C   -4.52373621788967      0.62619792192143     -1.99852594754901
  H   -5.00727207040276      0.72883728033922      0.18221665757609
  H   -4.85953860666333      1.16112575361440     -2.89086872421540
  H   -4.86115667076806     -0.40699829012839     -2.11626438252922
  C   -2.86527691899566      0.59997770953135     -2.04833798761038
  H   -2.52080934683024      1.63138617692268     -1.93993928911753
  C   -2.11957633130280     -0.05615405516419     -3.36557528527564
  H   -2.52173205008295      0.06338100979023     -1.16049222065580
  H   -2.51006700635278      0.48530035082468     -4.23106205892467
  H   -2.50877694989592     -1.07368405992821     -3.45378979851699
  C   -0.45038817970260     -0.23009109577264     -3.71715657802182
  H   0.03571560536599      0.74238604839457     -3.76827240371460
  H   -0.42675654862617     -0.71690709453699     -4.68905286533553
  H   0.03807241789485     -0.85196970381308     -2.96931048997217
