25
Coordinates from ORCA-job /Users/cxs454/Desktop/DecomPoly/S-S_Curve/PDMS_3
  Si  -3.96988661723252      1.44586485682688      0.11978633442157
  O   -2.30041862850441      1.39997388623251     -0.11919392722715
  O   -5.14535764209262      0.57029729063712     -0.78862889430714
  C   -4.39344133944472      3.24710054060045     -0.13403912092861
  C   -4.29210588224438      0.79332439309403      1.83285874697074
  H   -4.19529536778823      3.55003506423878     -1.16603074926687
  H   -3.78581058266124      3.88394521174753      0.51233231096387
  H   -5.44709146321824      3.44004556961730      0.07677459466743
  H   -4.04495728259184     -0.26850796111700      1.89402123243173
  H   -5.34478065166058      0.90642637721670      2.09785609544641
  H   -3.68751292726904      1.32138223270293      2.57263662926946
  H   -5.24053843636174      0.82828051895521     -1.71091653373437
  Si  -0.68393924089434      0.98694287830359      0.20095807834963
  C   0.84048019145625      2.19972529371262      0.70398063777489
  C   -0.11239712770164      0.18561195795479     -1.39208077777338
  C   -0.75920747086972     -0.24369978467517      1.61364047949427
  H   -1.11102079326460      0.23149893485295      2.53251798217686
  H   0.22686787960232     -0.66778198918474      1.81754722842974
  H   -1.44188136365806     -1.06405805759672      1.38218123206301
  H   1.07661051960831      2.93489598893895     -0.06500494701992
  H   1.67002177070785      1.49543950509264      0.79317462116393
  H   0.69683787283398      2.70457233995216      1.65908214675828
  H   -0.10030646678012      0.91305473422693     -2.20766206202576
  H   -0.78560865763287     -0.62486027759009     -1.67990298016622
  H   0.89626970766250     -0.22283950474058     -1.29556835793243
