25
Coordinates from ORCA-job /Users/cxs454/Desktop/DecomPoly/S-S_Curve/PDMS_2
  Si  -3.91193748320520      1.48089751277913      0.14658841258363
  O   -2.26935251424049      1.42369214032624     -0.12091035535591
  O   -4.96898861185449      0.55361665299508     -0.79996264013736
  C   -4.36713228692759      3.27407441349543     -0.10631887361339
  C   -4.25062487683181      0.85164985476083      1.86524131861651
  H   -4.16032187790438      3.58767074525841     -1.13325759934503
  H   -3.78240361146209      3.91898024129267      0.55355019858339
  H   -5.42675349920871      3.44743980784024      0.09201188543999
  H   -4.00004168005607     -0.20775934919838      1.94748267356148
  H   -5.30638721251116      0.96572969572356      2.11841001852746
  H   -3.65892125723047      1.39573337853222      2.60430129110111
  H   -5.02615987165144      0.77982684594359     -1.73285441898545
  Si  -0.69517384197412      0.93839260485496      0.18630856422722
  C   0.68524204979613      2.21597343216914      0.69011310564990
  C   -0.11266198845399      0.13985034076927     -1.40368743557242
  C   -0.77302423338152     -0.31508866052341      1.57840013177278
  H   -1.12164563634698      0.14360502081794      2.50670870339939
  H   0.21265532480582     -0.74563209509977      1.77166982191682
  H   -1.45570926845201     -1.13191305448120      1.33397553290590
  H   0.87102254713709      2.96635701968510     -0.07965061887380
  H   1.58990284801834      1.61601031256435      0.81474375455277
  H   0.47551445499876      2.72328279571818      1.63298273967032
  H   -0.08762920805833      0.86831451043887     -2.21797106015047
  H   -0.78600672574884     -0.66770571602008     -1.70002065085747
  H   0.89206846074384     -0.27632845064257     -1.29753449961741
