106

O          9.64263        4.67845        3.83021
C          9.97863        4.59047        2.66070
N         11.06345        5.23157        2.07395
O          9.31893        3.82840        1.73881
C         12.08548        6.09614        2.75528
H         11.25704        4.90681        1.13587
C          8.15829        2.96807        2.00836
C         13.02061        6.89560        1.77459
H         12.69041        5.43872        3.38849
H         11.55624        6.78551        3.42033
O         14.23899        7.54352        2.30330
H         12.43110        7.62038        1.20124
H         13.40894        6.17615        1.04211
C         14.25952        8.91814        2.36644
C         15.61253        9.56364        1.97847
O         13.24650        9.58385        2.55317
C         16.61413       10.01252        3.06491
H         15.32142       10.45899        1.40500
H         16.11133        8.91499        1.24945
S         17.89125       11.17299        2.32327
H         16.11353       10.53919        3.88187
H         17.14765        9.14648        3.46797
C         19.07322       11.41834        3.71468
C         20.23089       12.35350        3.33955
H         18.54505       11.84380        4.57201
H         19.49020       10.44781        3.99615
H         20.95801       12.39891        4.16259
H         19.89045       13.37950        3.16248
H         20.77553       12.00902        2.45373
H          8.00056        2.46849        1.04195
C          8.32621        1.85546        3.03429
C          6.81048        3.60266        2.39854
H          8.87565        1.00000        2.62851
H          8.81944        2.17733        3.95502
O          6.98147        1.42939        3.34867
H          6.88706        4.62902        2.76060
O          5.90745        3.60359        1.26069
C          6.20027        2.64407        3.42926
C          4.86543        2.62507        1.48870
H          6.28675        3.02936        4.45056
C          4.75227        2.43618        2.99864
H          5.16749        1.69132        1.00000
H          3.94746        2.98576        1.01529
H          4.35703        1.44949        3.27226
O          3.93096        3.47227        3.59230
C          2.58939        3.36221        3.39249
N          1.96488        4.43463        3.95754
O          2.03940        2.45089        2.80022
C          0.55070        4.67845        3.83021
H          2.55334        5.09026        4.44865
H          0.00000        3.95201        4.43391
H          0.33877        5.68966        4.18563
H          0.24998        4.58306        2.78293
O         11.04527       -0.78692        3.77543
C         11.38127       -0.87490        2.60592
N         12.46609       -0.23380        2.01917
O         10.72157       -1.63697        1.68403
C         13.48812        0.63077        2.70050
H         12.65968       -0.55856        1.08109
C          9.56093       -2.49730        1.95358
C         14.42325        1.43023        1.71981
H         14.09305       -0.02665        3.33371
H         12.95888        1.32014        3.36555
O         15.64163        2.07815        2.24852
H         13.83374        2.15501        1.14646
H         14.81158        0.71078        0.98733
C         15.66216        3.45277        2.31166
C         17.01517        4.09827        1.92369
O         14.64914        4.11848        2.49839
C         18.01677        4.54715        3.01013
H         16.72406        4.99362        1.35022
H         17.51397        3.44962        1.19467
S         19.29389        5.70762        2.26849
H         17.51617        5.07382        3.82709
H         18.55029        3.68111        3.41319
C         20.47586        5.95297        3.65990
C         21.63353        6.88813        3.28477
H         19.94769        6.37843        4.51723
H         20.89284        4.98244        3.94137
H         22.36065        6.93354        4.10781
H         21.29309        7.91413        3.10770
H         22.17817        6.54365        2.39895
H          9.40320       -2.99688        0.98717
C          9.72885       -3.60991        2.97951
C          8.21312       -1.86271        2.34376
H         10.27829       -4.46537        2.57373
H         10.22208       -3.28804        3.90024
O          8.38411       -4.03598        3.29389
H          8.28970       -0.83635        2.70582
O          7.31009       -1.86178        1.20591
C          7.60291       -2.82130        3.37448
C          6.26807       -2.84030        1.43392
H          7.68939       -2.43601        4.39578
C          6.15491       -3.02919        2.94386
H          6.57013       -3.77405        0.94522
H          5.35010       -2.47961        0.96051
H          5.75967       -4.01588        3.21748
O          5.33360       -1.99310        3.53752
C          3.99203       -2.10316        3.33771
N          3.36752       -1.03074        3.90276
O          3.44204       -3.01448        2.74544
C          1.95334       -0.78692        3.77543
H          3.95598       -0.37511        4.39387
H          1.40264       -1.51336        4.37913
H          1.74141        0.22429        4.13085
H          1.65262       -0.88231        2.72815
